Integrador com OPAMP quase ideal
Vs 1 0 pulse(-1 1 .5e-3 1e-6 1e-6 .5e-3 1.001e-3)
xop1 0 2 3 opamp
R1 1 2 1k
c1 2 3 .5u
* Subcircuit for  opamp
.subckt opamp 1 2 3
* +in (=1) -in (=2) out (=3)
rin 1 2 2meg
rout 6 3 75
em 4 0 1 2 100k
rbw 4 5 0.5meg
cbw 5 0 31.85nf
eout 6 0 5 0 1
.ends opamp741
